/*--------------------------------*- C++ -*----------------------------------*\
| =========                 |                                                 |
| \\      /  F ield         | OpenFOAM: The Open Source CFD Toolbox           |
|  \\    /   O peration     | Version:  v2306                                 |
|   \\  /    A nd           | Website:  www.openfoam.com                      |
|    \\/     M anipulation  |                                                 |
\*---------------------------------------------------------------------------*/
FoamFile
{
    version     2.0;
    format      ascii;
    class       polyBoundaryMesh;
    location    "constant/polyMesh";
    object      boundary;
}
// * * * * * * * * * * * * * * * * * * * * * * * * * * * * * * * * * * * * * //

3
(
    inlet
    {
        type            patch;
        physicalType    inlet;
        nFaces          4;
        startFace       0;
    }
    outlet
    {
        type            patch;
        physicalType    outlet;
        nFaces          4;
        startFace       4;
    }
    walls
    {
        type            wall;
        nFaces          512;
        startFace       8;
    }
)

// ************************************************************************* //
